./test_header/c1908d
Sun Mar 29 10:38:13 CST 2020
Using: /usr/cad/synopsys/hspice/2015.06/hspice/linux64/hspice  -mt 15 -i './test_header/c1908d/7_10_50_5y.sp' -o ./hspice_result/c1908d/7/7_10_50_5y

>info:         ***** hspice job concluded
Using: /usr/cad/synopsys/hspice/2015.06/hspice/linux64/hspice  -mt 15 -i './test_header/c1908d/19_10_50_18y.sp' -o ./hspice_result/c1908d/19/19_10_50_18y

>info:         ***** hspice job concluded
Using: /usr/cad/synopsys/hspice/2015.06/hspice/linux64/hspice  -mt 15 -i './test_header/c1908d/14_10_50_13y.sp' -o ./hspice_result/c1908d/14/14_10_50_13y

>info:         ***** hspice job concluded
Using: /usr/cad/synopsys/hspice/2015.06/hspice/linux64/hspice  -mt 15 -i './test_header/c1908d/6_10_50_1m.sp' -o ./hspice_result/c1908d/6/6_10_50_1m

>info:         ***** hspice job concluded
Using: /usr/cad/synopsys/hspice/2015.06/hspice/linux64/hspice  -mt 15 -i './test_header/c1908d/8_10_50_6y.sp' -o ./hspice_result/c1908d/8/8_10_50_6y

>info:         ***** hspice job concluded
Using: /usr/cad/synopsys/hspice/2015.06/hspice/linux64/hspice  -mt 15 -i './test_header/c1908d/4_10_50_7m.sp' -o ./hspice_result/c1908d/4/4_10_50_7m

>info:         ***** hspice job concluded
Using: /usr/cad/synopsys/hspice/2015.06/hspice/linux64/hspice  -mt 15 -i './test_header/c1908d/4_10_50_4y.sp' -o ./hspice_result/c1908d/4/4_10_50_4y

>info:         ***** hspice job concluded
Using: /usr/cad/synopsys/hspice/2015.06/hspice/linux64/hspice  -mt 15 -i './test_header/c1908d/7_10_50_3m.sp' -o ./hspice_result/c1908d/7/7_10_50_3m

>info:         ***** hspice job concluded
Using: /usr/cad/synopsys/hspice/2015.06/hspice/linux64/hspice  -mt 15 -i './test_header/c1908d/3_10_50_1m.sp' -o ./hspice_result/c1908d/3/3_10_50_1m

>info:         ***** hspice job concluded
Using: /usr/cad/synopsys/hspice/2015.06/hspice/linux64/hspice  -mt 15 -i './test_header/c1908d/16_10_50_18y.sp' -o ./hspice_result/c1908d/16/16_10_50_18y

>info:         ***** hspice job concluded
Using: /usr/cad/synopsys/hspice/2015.06/hspice/linux64/hspice  -mt 15 -i './test_header/c1908d/11_10_50_7m.sp' -o ./hspice_result/c1908d/11/11_10_50_7m

>info:         ***** hspice job concluded
Using: /usr/cad/synopsys/hspice/2015.06/hspice/linux64/hspice  -mt 15 -i './test_header/c1908d/11_10_50_1m.sp' -o ./hspice_result/c1908d/11/11_10_50_1m

>info:         ***** hspice job concluded
Using: /usr/cad/synopsys/hspice/2015.06/hspice/linux64/hspice  -mt 15 -i './test_header/c1908d/12_10_50_4y.sp' -o ./hspice_result/c1908d/12/12_10_50_4y

>info:         ***** hspice job concluded
Using: /usr/cad/synopsys/hspice/2015.06/hspice/linux64/hspice  -mt 15 -i './test_header/c1908d/11_10_50_20y.sp' -o ./hspice_result/c1908d/11/11_10_50_20y

>info:         ***** hspice job concluded
Using: /usr/cad/synopsys/hspice/2015.06/hspice/linux64/hspice  -mt 15 -i './test_header/c1908d/1_10_50_11m.sp' -o ./hspice_result/c1908d/1/1_10_50_11m

>info:         ***** hspice job concluded
Using: /usr/cad/synopsys/hspice/2015.06/hspice/linux64/hspice  -mt 15 -i './test_header/c1908d/2_10_50_10y.sp' -o ./hspice_result/c1908d/2/2_10_50_10y

>info:         ***** hspice job concluded
Using: /usr/cad/synopsys/hspice/2015.06/hspice/linux64/hspice  -mt 15 -i './test_header/c1908d/3_10_50_13y.sp' -o ./hspice_result/c1908d/3/3_10_50_13y

>info:         ***** hspice job concluded
Using: /usr/cad/synopsys/hspice/2015.06/hspice/linux64/hspice  -mt 15 -i './test_header/c1908d/19_10_50_4m.sp' -o ./hspice_result/c1908d/19/19_10_50_4m

>info:         ***** hspice job concluded
Using: /usr/cad/synopsys/hspice/2015.06/hspice/linux64/hspice  -mt 15 -i './test_header/c1908d/16_10_50_19y.sp' -o ./hspice_result/c1908d/16/16_10_50_19y

>info:         ***** hspice job concluded
Using: /usr/cad/synopsys/hspice/2015.06/hspice/linux64/hspice  -mt 15 -i './test_header/c1908d/10_10_50_20y.sp' -o ./hspice_result/c1908d/10/10_10_50_20y

>info:         ***** hspice job concluded
Using: /usr/cad/synopsys/hspice/2015.06/hspice/linux64/hspice  -mt 15 -i './test_header/c1908d/5_10_50_4y.sp' -o ./hspice_result/c1908d/5/5_10_50_4y

>info:         ***** hspice job concluded
Using: /usr/cad/synopsys/hspice/2015.06/hspice/linux64/hspice  -mt 15 -i './test_header/c1908d/19_10_50_2y.sp' -o ./hspice_result/c1908d/19/19_10_50_2y

>info:         ***** hspice job concluded
Using: /usr/cad/synopsys/hspice/2015.06/hspice/linux64/hspice  -mt 15 -i './test_header/c1908d/19_10_50_3m.sp' -o ./hspice_result/c1908d/19/19_10_50_3m

>info:         ***** hspice job concluded
Using: /usr/cad/synopsys/hspice/2015.06/hspice/linux64/hspice  -mt 15 -i './test_header/c1908d/17_10_50_3y.sp' -o ./hspice_result/c1908d/17/17_10_50_3y

>info:         ***** hspice job concluded
Using: /usr/cad/synopsys/hspice/2015.06/hspice/linux64/hspice  -mt 15 -i './test_header/c1908d/8_10_50_8y.sp' -o ./hspice_result/c1908d/8/8_10_50_8y

>info:         ***** hspice job concluded
Using: /usr/cad/synopsys/hspice/2015.06/hspice/linux64/hspice  -mt 15 -i './test_header/c1908d/19_10_50_0m.sp' -o ./hspice_result/c1908d/19/19_10_50_0m

>info:         ***** hspice job concluded
Using: /usr/cad/synopsys/hspice/2015.06/hspice/linux64/hspice  -mt 15 -i './test_header/c1908d/5_10_50_5y.sp' -o ./hspice_result/c1908d/5/5_10_50_5y

>info:         ***** hspice job concluded
Using: /usr/cad/synopsys/hspice/2015.06/hspice/linux64/hspice  -mt 15 -i './test_header/c1908d/14_10_50_8y.sp' -o ./hspice_result/c1908d/14/14_10_50_8y

>info:         ***** hspice job concluded
Using: /usr/cad/synopsys/hspice/2015.06/hspice/linux64/hspice  -mt 15 -i './test_header/c1908d/13_10_50_16y.sp' -o ./hspice_result/c1908d/13/13_10_50_16y

>info:         ***** hspice job concluded
Using: /usr/cad/synopsys/hspice/2015.06/hspice/linux64/hspice  -mt 15 -i './test_header/c1908d/18_10_50_6y.sp' -o ./hspice_result/c1908d/18/18_10_50_6y

>info:         ***** hspice job concluded
Using: /usr/cad/synopsys/hspice/2015.06/hspice/linux64/hspice  -mt 15 -i './test_header/c1908d/9_10_50_5m.sp' -o ./hspice_result/c1908d/9/9_10_50_5m

>info:         ***** hspice job concluded
Using: /usr/cad/synopsys/hspice/2015.06/hspice/linux64/hspice  -mt 15 -i './test_header/c1908d/0_10_50_7y.sp' -o ./hspice_result/c1908d/0/0_10_50_7y

>info:         ***** hspice job concluded
Using: /usr/cad/synopsys/hspice/2015.06/hspice/linux64/hspice  -mt 15 -i './test_header/c1908d/16_10_50_9y.sp' -o ./hspice_result/c1908d/16/16_10_50_9y

>info:         ***** hspice job concluded
Using: /usr/cad/synopsys/hspice/2015.06/hspice/linux64/hspice  -mt 15 -i './test_header/c1908d/17_10_50_18y.sp' -o ./hspice_result/c1908d/17/17_10_50_18y

>info:         ***** hspice job concluded
Using: /usr/cad/synopsys/hspice/2015.06/hspice/linux64/hspice  -mt 15 -i './test_header/c1908d/18_10_50_16y.sp' -o ./hspice_result/c1908d/18/18_10_50_16y

>info:         ***** hspice job concluded
Using: /usr/cad/synopsys/hspice/2015.06/hspice/linux64/hspice  -mt 15 -i './test_header/c1908d/10_10_50_15y.sp' -o ./hspice_result/c1908d/10/10_10_50_15y

>info:         ***** hspice job concluded
Using: /usr/cad/synopsys/hspice/2015.06/hspice/linux64/hspice  -mt 15 -i './test_header/c1908d/13_10_50_5m.sp' -o ./hspice_result/c1908d/13/13_10_50_5m

>info:         ***** hspice job concluded
Using: /usr/cad/synopsys/hspice/2015.06/hspice/linux64/hspice  -mt 15 -i './test_header/c1908d/13_10_50_7m.sp' -o ./hspice_result/c1908d/13/13_10_50_7m

>info:         ***** hspice job concluded
Using: /usr/cad/synopsys/hspice/2015.06/hspice/linux64/hspice  -mt 15 -i './test_header/c1908d/7_10_50_6m.sp' -o ./hspice_result/c1908d/7/7_10_50_6m

>info:         ***** hspice job concluded
Using: /usr/cad/synopsys/hspice/2015.06/hspice/linux64/hspice  -mt 15 -i './test_header/c1908d/16_10_50_8m.sp' -o ./hspice_result/c1908d/16/16_10_50_8m

>info:         ***** hspice job concluded
Using: /usr/cad/synopsys/hspice/2015.06/hspice/linux64/hspice  -mt 15 -i './test_header/c1908d/1_10_50_2y.sp' -o ./hspice_result/c1908d/1/1_10_50_2y

>info:         ***** hspice job concluded
Using: /usr/cad/synopsys/hspice/2015.06/hspice/linux64/hspice  -mt 15 -i './test_header/c1908d/5_10_50_20y.sp' -o ./hspice_result/c1908d/5/5_10_50_20y

>info:         ***** hspice job concluded
Using: /usr/cad/synopsys/hspice/2015.06/hspice/linux64/hspice  -mt 15 -i './test_header/c1908d/6_10_50_18y.sp' -o ./hspice_result/c1908d/6/6_10_50_18y

>info:         ***** hspice job concluded
Using: /usr/cad/synopsys/hspice/2015.06/hspice/linux64/hspice  -mt 15 -i './test_header/c1908d/5_10_50_13y.sp' -o ./hspice_result/c1908d/5/5_10_50_13y

>info:         ***** hspice job concluded
Using: /usr/cad/synopsys/hspice/2015.06/hspice/linux64/hspice  -mt 15 -i './test_header/c1908d/6_10_50_10y.sp' -o ./hspice_result/c1908d/6/6_10_50_10y

>info:         ***** hspice job concluded
Using: /usr/cad/synopsys/hspice/2015.06/hspice/linux64/hspice  -mt 15 -i './test_header/c1908d/3_10_50_6m.sp' -o ./hspice_result/c1908d/3/3_10_50_6m

>info:         ***** hspice job concluded
Using: /usr/cad/synopsys/hspice/2015.06/hspice/linux64/hspice  -mt 15 -i './test_header/c1908d/19_10_50_5y.sp' -o ./hspice_result/c1908d/19/19_10_50_5y

>info:         ***** hspice job concluded
Using: /usr/cad/synopsys/hspice/2015.06/hspice/linux64/hspice  -mt 15 -i './test_header/c1908d/19_10_50_14y.sp' -o ./hspice_result/c1908d/19/19_10_50_14y

>info:         ***** hspice job concluded
Using: /usr/cad/synopsys/hspice/2015.06/hspice/linux64/hspice  -mt 15 -i './test_header/c1908d/4_10_50_9m.sp' -o ./hspice_result/c1908d/4/4_10_50_9m

>info:         ***** hspice job concluded
Using: /usr/cad/synopsys/hspice/2015.06/hspice/linux64/hspice  -mt 15 -i './test_header/c1908d/17_10_50_8y.sp' -o ./hspice_result/c1908d/17/17_10_50_8y

>info:         ***** hspice job concluded
Using: /usr/cad/synopsys/hspice/2015.06/hspice/linux64/hspice  -mt 15 -i './test_header/c1908d/13_10_50_11y.sp' -o ./hspice_result/c1908d/13/13_10_50_11y

>info:         ***** hspice job concluded
Using: /usr/cad/synopsys/hspice/2015.06/hspice/linux64/hspice  -mt 15 -i './test_header/c1908d/3_10_50_8y.sp' -o ./hspice_result/c1908d/3/3_10_50_8y

>info:         ***** hspice job concluded
Using: /usr/cad/synopsys/hspice/2015.06/hspice/linux64/hspice  -mt 15 -i './test_header/c1908d/1_10_50_13y.sp' -o ./hspice_result/c1908d/1/1_10_50_13y

>info:         ***** hspice job concluded
Using: /usr/cad/synopsys/hspice/2015.06/hspice/linux64/hspice  -mt 15 -i './test_header/c1908d/6_10_50_2y.sp' -o ./hspice_result/c1908d/6/6_10_50_2y

>info:         ***** hspice job concluded
Using: /usr/cad/synopsys/hspice/2015.06/hspice/linux64/hspice  -mt 15 -i './test_header/c1908d/1_10_50_6m.sp' -o ./hspice_result/c1908d/1/1_10_50_6m

>info:         ***** hspice job concluded
Using: /usr/cad/synopsys/hspice/2015.06/hspice/linux64/hspice  -mt 15 -i './test_header/c1908d/14_10_50_6y.sp' -o ./hspice_result/c1908d/14/14_10_50_6y

>info:         ***** hspice job concluded
Using: /usr/cad/synopsys/hspice/2015.06/hspice/linux64/hspice  -mt 15 -i './test_header/c1908d/4_10_50_12y.sp' -o ./hspice_result/c1908d/4/4_10_50_12y

>info:         ***** hspice job concluded
Using: /usr/cad/synopsys/hspice/2015.06/hspice/linux64/hspice  -mt 15 -i './test_header/c1908d/4_10_50_7y.sp' -o ./hspice_result/c1908d/4/4_10_50_7y

>info:         ***** hspice job concluded
Using: /usr/cad/synopsys/hspice/2015.06/hspice/linux64/hspice  -mt 15 -i './test_header/c1908d/8_10_50_5y.sp' -o ./hspice_result/c1908d/8/8_10_50_5y

>info:         ***** hspice job concluded
Using: /usr/cad/synopsys/hspice/2015.06/hspice/linux64/hspice  -mt 15 -i './test_header/c1908d/14_10_50_11m.sp' -o ./hspice_result/c1908d/14/14_10_50_11m

>info:         ***** hspice job concluded
Using: /usr/cad/synopsys/hspice/2015.06/hspice/linux64/hspice  -mt 15 -i './test_header/c1908d/0_10_50_1m.sp' -o ./hspice_result/c1908d/0/0_10_50_1m

>info:         ***** hspice job concluded
Using: /usr/cad/synopsys/hspice/2015.06/hspice/linux64/hspice  -mt 15 -i './test_header/c1908d/19_10_50_1m.sp' -o ./hspice_result/c1908d/19/19_10_50_1m

>info:         ***** hspice job concluded
Using: /usr/cad/synopsys/hspice/2015.06/hspice/linux64/hspice  -mt 15 -i './test_header/c1908d/3_10_50_19y.sp' -o ./hspice_result/c1908d/3/3_10_50_19y

>info:         ***** hspice job concluded
Using: /usr/cad/synopsys/hspice/2015.06/hspice/linux64/hspice  -mt 15 -i './test_header/c1908d/16_10_50_3m.sp' -o ./hspice_result/c1908d/16/16_10_50_3m

>info:         ***** hspice job concluded
Using: /usr/cad/synopsys/hspice/2015.06/hspice/linux64/hspice  -mt 15 -i './test_header/c1908d/19_10_50_6m.sp' -o ./hspice_result/c1908d/19/19_10_50_6m

>info:         ***** hspice job concluded
Using: /usr/cad/synopsys/hspice/2015.06/hspice/linux64/hspice  -mt 15 -i './test_header/c1908d/16_10_50_1m.sp' -o ./hspice_result/c1908d/16/16_10_50_1m

>info:         ***** hspice job concluded
Using: /usr/cad/synopsys/hspice/2015.06/hspice/linux64/hspice  -mt 15 -i './test_header/c1908d/14_10_50_9m.sp' -o ./hspice_result/c1908d/14/14_10_50_9m

>info:         ***** hspice job concluded
Using: /usr/cad/synopsys/hspice/2015.06/hspice/linux64/hspice  -mt 15 -i './test_header/c1908d/2_10_50_2y.sp' -o ./hspice_result/c1908d/2/2_10_50_2y

>info:         ***** hspice job concluded
Using: /usr/cad/synopsys/hspice/2015.06/hspice/linux64/hspice  -mt 15 -i './test_header/c1908d/15_10_50_2m.sp' -o ./hspice_result/c1908d/15/15_10_50_2m

>info:         ***** hspice job concluded
Using: /usr/cad/synopsys/hspice/2015.06/hspice/linux64/hspice  -mt 15 -i './test_header/c1908d/13_10_50_2m.sp' -o ./hspice_result/c1908d/13/13_10_50_2m

>info:         ***** hspice job concluded
Using: /usr/cad/synopsys/hspice/2015.06/hspice/linux64/hspice  -mt 15 -i './test_header/c1908d/9_10_50_3y.sp' -o ./hspice_result/c1908d/9/9_10_50_3y

>info:         ***** hspice job concluded
Using: /usr/cad/synopsys/hspice/2015.06/hspice/linux64/hspice  -mt 15 -i './test_header/c1908d/15_10_50_5m.sp' -o ./hspice_result/c1908d/15/15_10_50_5m

>info:         ***** hspice job concluded
Using: /usr/cad/synopsys/hspice/2015.06/hspice/linux64/hspice  -mt 15 -i './test_header/c1908d/3_10_50_4y.sp' -o ./hspice_result/c1908d/3/3_10_50_4y

>info:         ***** hspice job concluded
Using: /usr/cad/synopsys/hspice/2015.06/hspice/linux64/hspice  -mt 15 -i './test_header/c1908d/11_10_50_12y.sp' -o ./hspice_result/c1908d/11/11_10_50_12y

>info:         ***** hspice job concluded
Using: /usr/cad/synopsys/hspice/2015.06/hspice/linux64/hspice  -mt 15 -i './test_header/c1908d/1_10_50_12y.sp' -o ./hspice_result/c1908d/1/1_10_50_12y

>info:         ***** hspice job concluded
Using: /usr/cad/synopsys/hspice/2015.06/hspice/linux64/hspice  -mt 15 -i './test_header/c1908d/6_10_50_11y.sp' -o ./hspice_result/c1908d/6/6_10_50_11y

>info:         ***** hspice job concluded
Using: /usr/cad/synopsys/hspice/2015.06/hspice/linux64/hspice  -mt 15 -i './test_header/c1908d/10_10_50_17y.sp' -o ./hspice_result/c1908d/10/10_10_50_17y

>info:         ***** hspice job concluded
Using: /usr/cad/synopsys/hspice/2015.06/hspice/linux64/hspice  -mt 15 -i './test_header/c1908d/9_10_50_20y.sp' -o ./hspice_result/c1908d/9/9_10_50_20y

>info:         ***** hspice job concluded
Using: /usr/cad/synopsys/hspice/2015.06/hspice/linux64/hspice  -mt 15 -i './test_header/c1908d/3_10_50_2m.sp' -o ./hspice_result/c1908d/3/3_10_50_2m

>info:         ***** hspice job concluded
Using: /usr/cad/synopsys/hspice/2015.06/hspice/linux64/hspice  -mt 15 -i './test_header/c1908d/11_10_50_9m.sp' -o ./hspice_result/c1908d/11/11_10_50_9m

>info:         ***** hspice job concluded
Using: /usr/cad/synopsys/hspice/2015.06/hspice/linux64/hspice  -mt 15 -i './test_header/c1908d/19_10_50_9y.sp' -o ./hspice_result/c1908d/19/19_10_50_9y

>info:         ***** hspice job concluded
Using: /usr/cad/synopsys/hspice/2015.06/hspice/linux64/hspice  -mt 15 -i './test_header/c1908d/1_10_50_20y.sp' -o ./hspice_result/c1908d/1/1_10_50_20y

>info:         ***** hspice job concluded
Using: /usr/cad/synopsys/hspice/2015.06/hspice/linux64/hspice  -mt 15 -i './test_header/c1908d/17_10_50_19y.sp' -o ./hspice_result/c1908d/17/17_10_50_19y

>info:         ***** hspice job concluded
Using: /usr/cad/synopsys/hspice/2015.06/hspice/linux64/hspice  -mt 15 -i './test_header/c1908d/13_10_50_17y.sp' -o ./hspice_result/c1908d/13/13_10_50_17y

>info:         ***** hspice job concluded
Using: /usr/cad/synopsys/hspice/2015.06/hspice/linux64/hspice  -mt 15 -i './test_header/c1908d/11_10_50_4m.sp' -o ./hspice_result/c1908d/11/11_10_50_4m

>info:         ***** hspice job concluded
Using: /usr/cad/synopsys/hspice/2015.06/hspice/linux64/hspice  -mt 15 -i './test_header/c1908d/17_10_50_14y.sp' -o ./hspice_result/c1908d/17/17_10_50_14y

>info:         ***** hspice job concluded
Using: /usr/cad/synopsys/hspice/2015.06/hspice/linux64/hspice  -mt 15 -i './test_header/c1908d/9_10_50_11y.sp' -o ./hspice_result/c1908d/9/9_10_50_11y

>info:         ***** hspice job concluded
Using: /usr/cad/synopsys/hspice/2015.06/hspice/linux64/hspice  -mt 15 -i './test_header/c1908d/12_10_50_1y.sp' -o ./hspice_result/c1908d/12/12_10_50_1y

>info:         ***** hspice job concluded
Using: /usr/cad/synopsys/hspice/2015.06/hspice/linux64/hspice  -mt 15 -i './test_header/c1908d/8_10_50_10m.sp' -o ./hspice_result/c1908d/8/8_10_50_10m

>info:         ***** hspice job concluded
Using: /usr/cad/synopsys/hspice/2015.06/hspice/linux64/hspice  -mt 15 -i './test_header/c1908d/9_10_50_2y.sp' -o ./hspice_result/c1908d/9/9_10_50_2y

>info:         ***** hspice job concluded
Using: /usr/cad/synopsys/hspice/2015.06/hspice/linux64/hspice  -mt 15 -i './test_header/c1908d/2_10_50_3m.sp' -o ./hspice_result/c1908d/2/2_10_50_3m

>info:         ***** hspice job concluded
Using: /usr/cad/synopsys/hspice/2015.06/hspice/linux64/hspice  -mt 15 -i './test_header/c1908d/2_10_50_7y.sp' -o ./hspice_result/c1908d/2/2_10_50_7y

>info:         ***** hspice job concluded
Using: /usr/cad/synopsys/hspice/2015.06/hspice/linux64/hspice  -mt 15 -i './test_header/c1908d/17_10_50_0m.sp' -o ./hspice_result/c1908d/17/17_10_50_0m

>info:         ***** hspice job concluded
Using: /usr/cad/synopsys/hspice/2015.06/hspice/linux64/hspice  -mt 15 -i './test_header/c1908d/3_10_50_18y.sp' -o ./hspice_result/c1908d/3/3_10_50_18y

>info:         ***** hspice job concluded
Using: /usr/cad/synopsys/hspice/2015.06/hspice/linux64/hspice  -mt 15 -i './test_header/c1908d/13_10_50_8y.sp' -o ./hspice_result/c1908d/13/13_10_50_8y

>info:         ***** hspice job concluded
Using: /usr/cad/synopsys/hspice/2015.06/hspice/linux64/hspice  -mt 15 -i './test_header/c1908d/7_10_50_9m.sp' -o ./hspice_result/c1908d/7/7_10_50_9m

>info:         ***** hspice job concluded
Using: /usr/cad/synopsys/hspice/2015.06/hspice/linux64/hspice  -mt 15 -i './test_header/c1908d/6_10_50_8m.sp' -o ./hspice_result/c1908d/6/6_10_50_8m

>info:         ***** hspice job concluded
Using: /usr/cad/synopsys/hspice/2015.06/hspice/linux64/hspice  -mt 15 -i './test_header/c1908d/15_10_50_11y.sp' -o ./hspice_result/c1908d/15/15_10_50_11y

>info:         ***** hspice job concluded
Using: /usr/cad/synopsys/hspice/2015.06/hspice/linux64/hspice  -mt 15 -i './test_header/c1908d/0_10_50_11y.sp' -o ./hspice_result/c1908d/0/0_10_50_11y

>info:         ***** hspice job concluded
Using: /usr/cad/synopsys/hspice/2015.06/hspice/linux64/hspice  -mt 15 -i './test_header/c1908d/19_10_50_19y.sp' -o ./hspice_result/c1908d/19/19_10_50_19y

>info:         ***** hspice job concluded
Using: /usr/cad/synopsys/hspice/2015.06/hspice/linux64/hspice  -mt 15 -i './test_header/c1908d/19_10_50_11m.sp' -o ./hspice_result/c1908d/19/19_10_50_11m

>info:         ***** hspice job concluded
Using: /usr/cad/synopsys/hspice/2015.06/hspice/linux64/hspice  -mt 15 -i './test_header/c1908d/11_10_50_18y.sp' -o ./hspice_result/c1908d/11/11_10_50_18y

>info:         ***** hspice job concluded
Using: /usr/cad/synopsys/hspice/2015.06/hspice/linux64/hspice  -mt 15 -i './test_header/c1908d/15_10_50_1m.sp' -o ./hspice_result/c1908d/15/15_10_50_1m

>info:         ***** hspice job concluded
Using: /usr/cad/synopsys/hspice/2015.06/hspice/linux64/hspice  -mt 15 -i './test_header/c1908d/4_10_50_11y.sp' -o ./hspice_result/c1908d/4/4_10_50_11y

>info:         ***** hspice job concluded
Using: /usr/cad/synopsys/hspice/2015.06/hspice/linux64/hspice  -mt 15 -i './test_header/c1908d/18_10_50_5m.sp' -o ./hspice_result/c1908d/18/18_10_50_5m

>info:         ***** hspice job concluded
Using: /usr/cad/synopsys/hspice/2015.06/hspice/linux64/hspice  -mt 15 -i './test_header/c1908d/14_10_50_11y.sp' -o ./hspice_result/c1908d/14/14_10_50_11y

>info:         ***** hspice job concluded
Using: /usr/cad/synopsys/hspice/2015.06/hspice/linux64/hspice  -mt 15 -i './test_header/c1908d/6_10_50_7y.sp' -o ./hspice_result/c1908d/6/6_10_50_7y

>info:         ***** hspice job concluded
Using: /usr/cad/synopsys/hspice/2015.06/hspice/linux64/hspice  -mt 15 -i './test_header/c1908d/5_10_50_18y.sp' -o ./hspice_result/c1908d/5/5_10_50_18y

>info:         ***** hspice job concluded
Using: /usr/cad/synopsys/hspice/2015.06/hspice/linux64/hspice  -mt 15 -i './test_header/c1908d/2_10_50_13y.sp' -o ./hspice_result/c1908d/2/2_10_50_13y

>info:         ***** hspice job concluded
Using: /usr/cad/synopsys/hspice/2015.06/hspice/linux64/hspice  -mt 15 -i './test_header/c1908d/12_10_50_0m.sp' -o ./hspice_result/c1908d/12/12_10_50_0m

>info:         ***** hspice job concluded
Using: /usr/cad/synopsys/hspice/2015.06/hspice/linux64/hspice  -mt 15 -i './test_header/c1908d/1_10_50_6y.sp' -o ./hspice_result/c1908d/1/1_10_50_6y

>info:         ***** hspice job concluded
Using: /usr/cad/synopsys/hspice/2015.06/hspice/linux64/hspice  -mt 15 -i './test_header/c1908d/8_10_50_1m.sp' -o ./hspice_result/c1908d/8/8_10_50_1m

>info:         ***** hspice job concluded
Using: /usr/cad/synopsys/hspice/2015.06/hspice/linux64/hspice  -mt 15 -i './test_header/c1908d/4_10_50_11m.sp' -o ./hspice_result/c1908d/4/4_10_50_11m

>info:         ***** hspice job concluded
Using: /usr/cad/synopsys/hspice/2015.06/hspice/linux64/hspice  -mt 15 -i './test_header/c1908d/10_10_50_13y.sp' -o ./hspice_result/c1908d/10/10_10_50_13y

>info:         ***** hspice job concluded
Using: /usr/cad/synopsys/hspice/2015.06/hspice/linux64/hspice  -mt 15 -i './test_header/c1908d/1_10_50_4m.sp' -o ./hspice_result/c1908d/1/1_10_50_4m

>info:         ***** hspice job concluded
Using: /usr/cad/synopsys/hspice/2015.06/hspice/linux64/hspice  -mt 15 -i './test_header/c1908d/19_10_50_4y.sp' -o ./hspice_result/c1908d/19/19_10_50_4y

>info:         ***** hspice job concluded
Using: /usr/cad/synopsys/hspice/2015.06/hspice/linux64/hspice  -mt 15 -i './test_header/c1908d/11_10_50_8m.sp' -o ./hspice_result/c1908d/11/11_10_50_8m

>info:         ***** hspice job concluded
Using: /usr/cad/synopsys/hspice/2015.06/hspice/linux64/hspice  -mt 15 -i './test_header/c1908d/19_10_50_20y.sp' -o ./hspice_result/c1908d/19/19_10_50_20y

>info:         ***** hspice job concluded
Using: /usr/cad/synopsys/hspice/2015.06/hspice/linux64/hspice  -mt 15 -i './test_header/c1908d/13_10_50_1m.sp' -o ./hspice_result/c1908d/13/13_10_50_1m

>info:         ***** hspice job concluded
Using: /usr/cad/synopsys/hspice/2015.06/hspice/linux64/hspice  -mt 15 -i './test_header/c1908d/9_10_50_0m.sp' -o ./hspice_result/c1908d/9/9_10_50_0m

>info:         ***** hspice job concluded
Using: /usr/cad/synopsys/hspice/2015.06/hspice/linux64/hspice  -mt 15 -i './test_header/c1908d/11_10_50_5m.sp' -o ./hspice_result/c1908d/11/11_10_50_5m

>info:         ***** hspice job concluded
Using: /usr/cad/synopsys/hspice/2015.06/hspice/linux64/hspice  -mt 15 -i './test_header/c1908d/15_10_50_6m.sp' -o ./hspice_result/c1908d/15/15_10_50_6m

>info:         ***** hspice job concluded
Using: /usr/cad/synopsys/hspice/2015.06/hspice/linux64/hspice  -mt 15 -i './test_header/c1908d/12_10_50_17y.sp' -o ./hspice_result/c1908d/12/12_10_50_17y

>info:         ***** hspice job concluded
Using: /usr/cad/synopsys/hspice/2015.06/hspice/linux64/hspice  -mt 15 -i './test_header/c1908d/5_10_50_3m.sp' -o ./hspice_result/c1908d/5/5_10_50_3m

>info:         ***** hspice job concluded
Using: /usr/cad/synopsys/hspice/2015.06/hspice/linux64/hspice  -mt 15 -i './test_header/c1908d/5_10_50_8y.sp' -o ./hspice_result/c1908d/5/5_10_50_8y

>info:         ***** hspice job concluded
Using: /usr/cad/synopsys/hspice/2015.06/hspice/linux64/hspice  -mt 15 -i './test_header/c1908d/11_10_50_6y.sp' -o ./hspice_result/c1908d/11/11_10_50_6y

>info:         ***** hspice job concluded
Using: /usr/cad/synopsys/hspice/2015.06/hspice/linux64/hspice  -mt 15 -i './test_header/c1908d/16_10_50_0m.sp' -o ./hspice_result/c1908d/16/16_10_50_0m

>info:         ***** hspice job concluded
Using: /usr/cad/synopsys/hspice/2015.06/hspice/linux64/hspice  -mt 15 -i './test_header/c1908d/7_10_50_17y.sp' -o ./hspice_result/c1908d/7/7_10_50_17y

>info:         ***** hspice job concluded
Using: /usr/cad/synopsys/hspice/2015.06/hspice/linux64/hspice  -mt 15 -i './test_header/c1908d/1_10_50_14y.sp' -o ./hspice_result/c1908d/1/1_10_50_14y

>info:         ***** hspice job concluded
Using: /usr/cad/synopsys/hspice/2015.06/hspice/linux64/hspice  -mt 15 -i './test_header/c1908d/7_10_50_10m.sp' -o ./hspice_result/c1908d/7/7_10_50_10m

>info:         ***** hspice job concluded
Using: /usr/cad/synopsys/hspice/2015.06/hspice/linux64/hspice  -mt 15 -i './test_header/c1908d/18_10_50_19y.sp' -o ./hspice_result/c1908d/18/18_10_50_19y

>info:         ***** hspice job concluded
Using: /usr/cad/synopsys/hspice/2015.06/hspice/linux64/hspice  -mt 15 -i './test_header/c1908d/16_10_50_12y.sp' -o ./hspice_result/c1908d/16/16_10_50_12y

>info:         ***** hspice job concluded
Using: /usr/cad/synopsys/hspice/2015.06/hspice/linux64/hspice  -mt 15 -i './test_header/c1908d/4_10_50_16y.sp' -o ./hspice_result/c1908d/4/4_10_50_16y

>info:         ***** hspice job concluded
Using: /usr/cad/synopsys/hspice/2015.06/hspice/linux64/hspice  -mt 15 -i './test_header/c1908d/16_10_50_8y.sp' -o ./hspice_result/c1908d/16/16_10_50_8y

>info:         ***** hspice job concluded
Using: /usr/cad/synopsys/hspice/2015.06/hspice/linux64/hspice  -mt 15 -i './test_header/c1908d/3_10_50_16y.sp' -o ./hspice_result/c1908d/3/3_10_50_16y

>info:         ***** hspice job concluded
Using: /usr/cad/synopsys/hspice/2015.06/hspice/linux64/hspice  -mt 15 -i './test_header/c1908d/17_10_50_4m.sp' -o ./hspice_result/c1908d/17/17_10_50_4m

>info:         ***** hspice job concluded
Using: /usr/cad/synopsys/hspice/2015.06/hspice/linux64/hspice  -mt 15 -i './test_header/c1908d/10_10_50_7y.sp' -o ./hspice_result/c1908d/10/10_10_50_7y

>info:         ***** hspice job concluded
Using: /usr/cad/synopsys/hspice/2015.06/hspice/linux64/hspice  -mt 15 -i './test_header/c1908d/0_10_50_14y.sp' -o ./hspice_result/c1908d/0/0_10_50_14y

>info:         ***** hspice job concluded
Using: /usr/cad/synopsys/hspice/2015.06/hspice/linux64/hspice  -mt 15 -i './test_header/c1908d/15_10_50_8m.sp' -o ./hspice_result/c1908d/15/15_10_50_8m

>info:         ***** hspice job concluded
Using: /usr/cad/synopsys/hspice/2015.06/hspice/linux64/hspice  -mt 15 -i './test_header/c1908d/12_10_50_8m.sp' -o ./hspice_result/c1908d/12/12_10_50_8m

>info:         ***** hspice job concluded
Using: /usr/cad/synopsys/hspice/2015.06/hspice/linux64/hspice  -mt 15 -i './test_header/c1908d/12_10_50_3y.sp' -o ./hspice_result/c1908d/12/12_10_50_3y

>info:         ***** hspice job concluded
Using: /usr/cad/synopsys/hspice/2015.06/hspice/linux64/hspice  -mt 15 -i './test_header/c1908d/10_10_50_11m.sp' -o ./hspice_result/c1908d/10/10_10_50_11m

>info:         ***** hspice job concluded
Using: /usr/cad/synopsys/hspice/2015.06/hspice/linux64/hspice  -mt 15 -i './test_header/c1908d/17_10_50_2y.sp' -o ./hspice_result/c1908d/17/17_10_50_2y

>info:         ***** hspice job concluded
Using: /usr/cad/synopsys/hspice/2015.06/hspice/linux64/hspice  -mt 15 -i './test_header/c1908d/17_10_50_3m.sp' -o ./hspice_result/c1908d/17/17_10_50_3m

>info:         ***** hspice job concluded
Using: /usr/cad/synopsys/hspice/2015.06/hspice/linux64/hspice  -mt 15 -i './test_header/c1908d/18_10_50_2y.sp' -o ./hspice_result/c1908d/18/18_10_50_2y

>info:         ***** hspice job concluded
Using: /usr/cad/synopsys/hspice/2015.06/hspice/linux64/hspice  -mt 15 -i './test_header/c1908d/6_10_50_13y.sp' -o ./hspice_result/c1908d/6/6_10_50_13y

>info:         ***** hspice job concluded
Using: /usr/cad/synopsys/hspice/2015.06/hspice/linux64/hspice  -mt 15 -i './test_header/c1908d/2_10_50_9y.sp' -o ./hspice_result/c1908d/2/2_10_50_9y

>info:         ***** hspice job concluded
Using: /usr/cad/synopsys/hspice/2015.06/hspice/linux64/hspice  -mt 15 -i './test_header/c1908d/18_10_50_7y.sp' -o ./hspice_result/c1908d/18/18_10_50_7y

>info:         ***** hspice job concluded
Using: /usr/cad/synopsys/hspice/2015.06/hspice/linux64/hspice  -mt 15 -i './test_header/c1908d/12_10_50_5y.sp' -o ./hspice_result/c1908d/12/12_10_50_5y

>info:         ***** hspice job concluded
Using: /usr/cad/synopsys/hspice/2015.06/hspice/linux64/hspice  -mt 15 -i './test_header/c1908d/1_10_50_7m.sp' -o ./hspice_result/c1908d/1/1_10_50_7m

>info:         ***** hspice job concluded
Using: /usr/cad/synopsys/hspice/2015.06/hspice/linux64/hspice  -mt 15 -i './test_header/c1908d/9_10_50_8y.sp' -o ./hspice_result/c1908d/9/9_10_50_8y

>info:         ***** hspice job concluded
Using: /usr/cad/synopsys/hspice/2015.06/hspice/linux64/hspice  -mt 15 -i './test_header/c1908d/7_10_50_15y.sp' -o ./hspice_result/c1908d/7/7_10_50_15y

>info:         ***** hspice job concluded
Using: /usr/cad/synopsys/hspice/2015.06/hspice/linux64/hspice  -mt 15 -i './test_header/c1908d/13_10_50_18y.sp' -o ./hspice_result/c1908d/13/13_10_50_18y

>info:         ***** hspice job concluded
Using: /usr/cad/synopsys/hspice/2015.06/hspice/linux64/hspice  -mt 15 -i './test_header/c1908d/6_10_50_4y.sp' -o ./hspice_result/c1908d/6/6_10_50_4y

>info:         ***** hspice job concluded
Using: /usr/cad/synopsys/hspice/2015.06/hspice/linux64/hspice  -mt 15 -i './test_header/c1908d/8_10_50_2m.sp' -o ./hspice_result/c1908d/8/8_10_50_2m

>info:         ***** hspice job concluded
Using: /usr/cad/synopsys/hspice/2015.06/hspice/linux64/hspice  -mt 15 -i './test_header/c1908d/4_10_50_10y.sp' -o ./hspice_result/c1908d/4/4_10_50_10y

>info:         ***** hspice job concluded
Using: /usr/cad/synopsys/hspice/2015.06/hspice/linux64/hspice  -mt 15 -i './test_header/c1908d/16_10_50_1y.sp' -o ./hspice_result/c1908d/16/16_10_50_1y

>info:         ***** hspice job concluded
Using: /usr/cad/synopsys/hspice/2015.06/hspice/linux64/hspice  -mt 15 -i './test_header/c1908d/11_10_50_7y.sp' -o ./hspice_result/c1908d/11/11_10_50_7y

>info:         ***** hspice job concluded
Using: /usr/cad/synopsys/hspice/2015.06/hspice/linux64/hspice  -mt 15 -i './test_header/c1908d/12_10_50_6m.sp' -o ./hspice_result/c1908d/12/12_10_50_6m

>info:         ***** hspice job concluded
Using: /usr/cad/synopsys/hspice/2015.06/hspice/linux64/hspice  -mt 15 -i './test_header/c1908d/0_10_50_10y.sp' -o ./hspice_result/c1908d/0/0_10_50_10y

>info:         ***** hspice job concluded
Using: /usr/cad/synopsys/hspice/2015.06/hspice/linux64/hspice  -mt 15 -i './test_header/c1908d/1_10_50_10m.sp' -o ./hspice_result/c1908d/1/1_10_50_10m

>info:         ***** hspice job concluded
Using: /usr/cad/synopsys/hspice/2015.06/hspice/linux64/hspice  -mt 15 -i './test_header/c1908d/19_10_50_10y.sp' -o ./hspice_result/c1908d/19/19_10_50_10y

>info:         ***** hspice job concluded
Using: /usr/cad/synopsys/hspice/2015.06/hspice/linux64/hspice  -mt 15 -i './test_header/c1908d/5_10_50_10m.sp' -o ./hspice_result/c1908d/5/5_10_50_10m

>info:         ***** hspice job concluded
Using: /usr/cad/synopsys/hspice/2015.06/hspice/linux64/hspice  -mt 15 -i './test_header/c1908d/18_10_50_4m.sp' -o ./hspice_result/c1908d/18/18_10_50_4m

>info:         ***** hspice job concluded
Using: /usr/cad/synopsys/hspice/2015.06/hspice/linux64/hspice  -mt 15 -i './test_header/c1908d/7_10_50_19y.sp' -o ./hspice_result/c1908d/7/7_10_50_19y

>info:         ***** hspice job concluded
Using: /usr/cad/synopsys/hspice/2015.06/hspice/linux64/hspice  -mt 15 -i './test_header/c1908d/16_10_50_14y.sp' -o ./hspice_result/c1908d/16/16_10_50_14y

>info:         ***** hspice job concluded
Using: /usr/cad/synopsys/hspice/2015.06/hspice/linux64/hspice  -mt 15 -i './test_header/c1908d/1_10_50_3m.sp' -o ./hspice_result/c1908d/1/1_10_50_3m

>info:         ***** hspice job concluded
Using: /usr/cad/synopsys/hspice/2015.06/hspice/linux64/hspice  -mt 15 -i './test_header/c1908d/19_10_50_8y.sp' -o ./hspice_result/c1908d/19/19_10_50_8y

>info:         ***** hspice job concluded
Using: /usr/cad/synopsys/hspice/2015.06/hspice/linux64/hspice  -mt 15 -i './test_header/c1908d/12_10_50_7y.sp' -o ./hspice_result/c1908d/12/12_10_50_7y

>info:         ***** hspice job concluded
Using: /usr/cad/synopsys/hspice/2015.06/hspice/linux64/hspice  -mt 15 -i './test_header/c1908d/6_10_50_5y.sp' -o ./hspice_result/c1908d/6/6_10_50_5y

>info:         ***** hspice job concluded
Using: /usr/cad/synopsys/hspice/2015.06/hspice/linux64/hspice  -mt 15 -i './test_header/c1908d/18_10_50_0m.sp' -o ./hspice_result/c1908d/18/18_10_50_0m

>info:         ***** hspice job concluded
Using: /usr/cad/synopsys/hspice/2015.06/hspice/linux64/hspice  -mt 15 -i './test_header/c1908d/16_10_50_2m.sp' -o ./hspice_result/c1908d/16/16_10_50_2m

>info:         ***** hspice job concluded
Using: /usr/cad/synopsys/hspice/2015.06/hspice/linux64/hspice  -mt 15 -i './test_header/c1908d/15_10_50_4y.sp' -o ./hspice_result/c1908d/15/15_10_50_4y

>info:         ***** hspice job concluded
Using: /usr/cad/synopsys/hspice/2015.06/hspice/linux64/hspice  -mt 15 -i './test_header/c1908d/18_10_50_13y.sp' -o ./hspice_result/c1908d/18/18_10_50_13y

>info:         ***** hspice job concluded
Using: /usr/cad/synopsys/hspice/2015.06/hspice/linux64/hspice  -mt 15 -i './test_header/c1908d/17_10_50_4y.sp' -o ./hspice_result/c1908d/17/17_10_50_4y

>info:         ***** hspice job concluded
Using: /usr/cad/synopsys/hspice/2015.06/hspice/linux64/hspice  -mt 15 -i './test_header/c1908d/16_10_50_7m.sp' -o ./hspice_result/c1908d/16/16_10_50_7m

>info:         ***** hspice job concluded
Using: /usr/cad/synopsys/hspice/2015.06/hspice/linux64/hspice  -mt 15 -i './test_header/c1908d/15_10_50_4m.sp' -o ./hspice_result/c1908d/15/15_10_50_4m

>info:         ***** hspice job concluded
Using: /usr/cad/synopsys/hspice/2015.06/hspice/linux64/hspice  -mt 15 -i './test_header/c1908d/10_10_50_3m.sp' -o ./hspice_result/c1908d/10/10_10_50_3m

>info:         ***** hspice job concluded
Using: /usr/cad/synopsys/hspice/2015.06/hspice/linux64/hspice  -mt 15 -i './test_header/c1908d/17_10_50_8m.sp' -o ./hspice_result/c1908d/17/17_10_50_8m

>info:         ***** hspice job concluded
Using: /usr/cad/synopsys/hspice/2015.06/hspice/linux64/hspice  -mt 15 -i './test_header/c1908d/7_10_50_0m.sp' -o ./hspice_result/c1908d/7/7_10_50_0m

>info:         ***** hspice job concluded
Using: /usr/cad/synopsys/hspice/2015.06/hspice/linux64/hspice  -mt 15 -i './test_header/c1908d/0_10_50_18y.sp' -o ./hspice_result/c1908d/0/0_10_50_18y

>info:         ***** hspice job concluded
Using: /usr/cad/synopsys/hspice/2015.06/hspice/linux64/hspice  -mt 15 -i './test_header/c1908d/19_10_50_15y.sp' -o ./hspice_result/c1908d/19/19_10_50_15y

>info:         ***** hspice job concluded
Using: /usr/cad/synopsys/hspice/2015.06/hspice/linux64/hspice  -mt 15 -i './test_header/c1908d/3_10_50_15y.sp' -o ./hspice_result/c1908d/3/3_10_50_15y

>info:         ***** hspice job concluded
Using: /usr/cad/synopsys/hspice/2015.06/hspice/linux64/hspice  -mt 15 -i './test_header/c1908d/0_10_50_9m.sp' -o ./hspice_result/c1908d/0/0_10_50_9m

>info:         ***** hspice job concluded
Using: /usr/cad/synopsys/hspice/2015.06/hspice/linux64/hspice  -mt 15 -i './test_header/c1908d/9_10_50_14y.sp' -o ./hspice_result/c1908d/9/9_10_50_14y

>info:         ***** hspice job concluded
Using: /usr/cad/synopsys/hspice/2015.06/hspice/linux64/hspice  -mt 15 -i './test_header/c1908d/0_10_50_10m.sp' -o ./hspice_result/c1908d/0/0_10_50_10m

>info:         ***** hspice job concluded
Using: /usr/cad/synopsys/hspice/2015.06/hspice/linux64/hspice  -mt 15 -i './test_header/c1908d/4_10_50_9y.sp' -o ./hspice_result/c1908d/4/4_10_50_9y

>info:         ***** hspice job concluded
Using: /usr/cad/synopsys/hspice/2015.06/hspice/linux64/hspice  -mt 15 -i './test_header/c1908d/2_10_50_6y.sp' -o ./hspice_result/c1908d/2/2_10_50_6y

>info:         ***** hspice job concluded
Using: /usr/cad/synopsys/hspice/2015.06/hspice/linux64/hspice  -mt 15 -i './test_header/c1908d/14_10_50_12y.sp' -o ./hspice_result/c1908d/14/14_10_50_12y

>info:         ***** hspice job concluded
Using: /usr/cad/synopsys/hspice/2015.06/hspice/linux64/hspice  -mt 15 -i './test_header/c1908d/13_10_50_13y.sp' -o ./hspice_result/c1908d/13/13_10_50_13y

>info:         ***** hspice job concluded
Using: /usr/cad/synopsys/hspice/2015.06/hspice/linux64/hspice  -mt 15 -i './test_header/c1908d/13_10_50_15y.sp' -o ./hspice_result/c1908d/13/13_10_50_15y

>info:         ***** hspice job concluded
Using: /usr/cad/synopsys/hspice/2015.06/hspice/linux64/hspice  -mt 15 -i './test_header/c1908d/2_10_50_11m.sp' -o ./hspice_result/c1908d/2/2_10_50_11m

>info:         ***** hspice job concluded
Using: /usr/cad/synopsys/hspice/2015.06/hspice/linux64/hspice  -mt 15 -i './test_header/c1908d/5_10_50_7m.sp' -o ./hspice_result/c1908d/5/5_10_50_7m

>info:         ***** hspice job concluded
Using: /usr/cad/synopsys/hspice/2015.06/hspice/linux64/hspice  -mt 15 -i './test_header/c1908d/14_10_50_2y.sp' -o ./hspice_result/c1908d/14/14_10_50_2y

>info:         ***** hspice job concluded
Using: /usr/cad/synopsys/hspice/2015.06/hspice/linux64/hspice  -mt 15 -i './test_header/c1908d/4_10_50_5y.sp' -o ./hspice_result/c1908d/4/4_10_50_5y

>info:         ***** hspice job concluded
Using: /usr/cad/synopsys/hspice/2015.06/hspice/linux64/hspice  -mt 15 -i './test_header/c1908d/12_10_50_11m.sp' -o ./hspice_result/c1908d/12/12_10_50_11m

>info:         ***** hspice job concluded
Using: /usr/cad/synopsys/hspice/2015.06/hspice/linux64/hspice  -mt 15 -i './test_header/c1908d/13_10_50_9y.sp' -o ./hspice_result/c1908d/13/13_10_50_9y

>info:         ***** hspice job concluded
Using: /usr/cad/synopsys/hspice/2015.06/hspice/linux64/hspice  -mt 15 -i './test_header/c1908d/8_10_50_9m.sp' -o ./hspice_result/c1908d/8/8_10_50_9m

>info:         ***** hspice job concluded
Using: /usr/cad/synopsys/hspice/2015.06/hspice/linux64/hspice  -mt 15 -i './test_header/c1908d/13_10_50_4y.sp' -o ./hspice_result/c1908d/13/13_10_50_4y

>info:         ***** hspice job concluded
Using: /usr/cad/synopsys/hspice/2015.06/hspice/linux64/hspice  -mt 15 -i './test_header/c1908d/2_10_50_20y.sp' -o ./hspice_result/c1908d/2/2_10_50_20y

>info:         ***** hspice job concluded
Using: /usr/cad/synopsys/hspice/2015.06/hspice/linux64/hspice  -mt 15 -i './test_header/c1908d/10_10_50_6m.sp' -o ./hspice_result/c1908d/10/10_10_50_6m

>info:         ***** hspice job concluded
Using: /usr/cad/synopsys/hspice/2015.06/hspice/linux64/hspice  -mt 15 -i './test_header/c1908d/1_10_50_1y.sp' -o ./hspice_result/c1908d/1/1_10_50_1y

>info:         ***** hspice job concluded
Using: /usr/cad/synopsys/hspice/2015.06/hspice/linux64/hspice  -mt 15 -i './test_header/c1908d/16_10_50_3y.sp' -o ./hspice_result/c1908d/16/16_10_50_3y

>info:         ***** hspice job concluded
Using: /usr/cad/synopsys/hspice/2015.06/hspice/linux64/hspice  -mt 15 -i './test_header/c1908d/11_10_50_0m.sp' -o ./hspice_result/c1908d/11/11_10_50_0m

>info:         ***** hspice job concluded
Using: /usr/cad/synopsys/hspice/2015.06/hspice/linux64/hspice  -mt 15 -i './test_header/c1908d/3_10_50_7m.sp' -o ./hspice_result/c1908d/3/3_10_50_7m

>info:         ***** hspice job concluded
Using: /usr/cad/synopsys/hspice/2015.06/hspice/linux64/hspice  -mt 15 -i './test_header/c1908d/9_10_50_2m.sp' -o ./hspice_result/c1908d/9/9_10_50_2m

>info:         ***** hspice job concluded
Using: /usr/cad/synopsys/hspice/2015.06/hspice/linux64/hspice  -mt 15 -i './test_header/c1908d/18_10_50_3m.sp' -o ./hspice_result/c1908d/18/18_10_50_3m

>info:         ***** hspice job concluded
Using: /usr/cad/synopsys/hspice/2015.06/hspice/linux64/hspice  -mt 15 -i './test_header/c1908d/18_10_50_5y.sp' -o ./hspice_result/c1908d/18/18_10_50_5y

>info:         ***** hspice job concluded
Using: /usr/cad/synopsys/hspice/2015.06/hspice/linux64/hspice  -mt 15 -i './test_header/c1908d/3_10_50_14y.sp' -o ./hspice_result/c1908d/3/3_10_50_14y

>info:         ***** hspice job concluded
Using: /usr/cad/synopsys/hspice/2015.06/hspice/linux64/hspice  -mt 15 -i './test_header/c1908d/8_10_50_3m.sp' -o ./hspice_result/c1908d/8/8_10_50_3m

>info:         ***** hspice job concluded
Using: /usr/cad/synopsys/hspice/2015.06/hspice/linux64/hspice  -mt 15 -i './test_header/c1908d/0_10_50_9y.sp' -o ./hspice_result/c1908d/0/0_10_50_9y

>info:         ***** hspice job concluded
Using: /usr/cad/synopsys/hspice/2015.06/hspice/linux64/hspice  -mt 15 -i './test_header/c1908d/2_10_50_6m.sp' -o ./hspice_result/c1908d/2/2_10_50_6m

>info:         ***** hspice job concluded
Using: /usr/cad/synopsys/hspice/2015.06/hspice/linux64/hspice  -mt 15 -i './test_header/c1908d/11_10_50_5y.sp' -o ./hspice_result/c1908d/11/11_10_50_5y

>info:         ***** hspice job concluded
Using: /usr/cad/synopsys/hspice/2015.06/hspice/linux64/hspice  -mt 15 -i './test_header/c1908d/6_10_50_8y.sp' -o ./hspice_result/c1908d/6/6_10_50_8y

>info:         ***** hspice job concluded
Using: /usr/cad/synopsys/hspice/2015.06/hspice/linux64/hspice  -mt 15 -i './test_header/c1908d/10_10_50_4y.sp' -o ./hspice_result/c1908d/10/10_10_50_4y

>info:         ***** hspice job concluded
Using: /usr/cad/synopsys/hspice/2015.06/hspice/linux64/hspice  -mt 15 -i './test_header/c1908d/10_10_50_10y.sp' -o ./hspice_result/c1908d/10/10_10_50_10y

>info:         ***** hspice job concluded
Using: /usr/cad/synopsys/hspice/2015.06/hspice/linux64/hspice  -mt 15 -i './test_header/c1908d/18_10_50_10m.sp' -o ./hspice_result/c1908d/18/18_10_50_10m

>info:         ***** hspice job concluded
Using: /usr/cad/synopsys/hspice/2015.06/hspice/linux64/hspice  -mt 15 -i './test_header/c1908d/15_10_50_19y.sp' -o ./hspice_result/c1908d/15/15_10_50_19y

>info:         ***** hspice job concluded
Using: /usr/cad/synopsys/hspice/2015.06/hspice/linux64/hspice  -mt 15 -i './test_header/c1908d/1_10_50_8m.sp' -o ./hspice_result/c1908d/1/1_10_50_8m

>info:         ***** hspice job concluded
Using: /usr/cad/synopsys/hspice/2015.06/hspice/linux64/hspice  -mt 15 -i './test_header/c1908d/15_10_50_17y.sp' -o ./hspice_result/c1908d/15/15_10_50_17y

>info:         ***** hspice job concluded
Using: /usr/cad/synopsys/hspice/2015.06/hspice/linux64/hspice  -mt 15 -i './test_header/c1908d/10_10_50_8y.sp' -o ./hspice_result/c1908d/10/10_10_50_8y

>info:         ***** hspice job concluded
Using: /usr/cad/synopsys/hspice/2015.06/hspice/linux64/hspice  -mt 15 -i './test_header/c1908d/0_10_50_17y.sp' -o ./hspice_result/c1908d/0/0_10_50_17y

>info:         ***** hspice job concluded
Using: /usr/cad/synopsys/hspice/2015.06/hspice/linux64/hspice  -mt 15 -i './test_header/c1908d/2_10_50_2m.sp' -o ./hspice_result/c1908d/2/2_10_50_2m

>info:         ***** hspice job concluded
Using: /usr/cad/synopsys/hspice/2015.06/hspice/linux64/hspice  -mt 15 -i './test_header/c1908d/13_10_50_4m.sp' -o ./hspice_result/c1908d/13/13_10_50_4m

>info:         ***** hspice job concluded
Using: /usr/cad/synopsys/hspice/2015.06/hspice/linux64/hspice  -mt 15 -i './test_header/c1908d/8_10_50_3y.sp' -o ./hspice_result/c1908d/8/8_10_50_3y

>info:         ***** hspice job concluded
Using: /usr/cad/synopsys/hspice/2015.06/hspice/linux64/hspice  -mt 15 -i './test_header/c1908d/6_10_50_2m.sp' -o ./hspice_result/c1908d/6/6_10_50_2m

>info:         ***** hspice job concluded
Using: /usr/cad/synopsys/hspice/2015.06/hspice/linux64/hspice  -mt 15 -i './test_header/c1908d/5_10_50_11m.sp' -o ./hspice_result/c1908d/5/5_10_50_11m

>info:         ***** hspice job concluded
Using: /usr/cad/synopsys/hspice/2015.06/hspice/linux64/hspice  -mt 15 -i './test_header/c1908d/5_10_50_12y.sp' -o ./hspice_result/c1908d/5/5_10_50_12y

>info:         ***** hspice job concluded
Using: /usr/cad/synopsys/hspice/2015.06/hspice/linux64/hspice  -mt 15 -i './test_header/c1908d/5_10_50_0m.sp' -o ./hspice_result/c1908d/5/5_10_50_0m

>info:         ***** hspice job concluded
Using: /usr/cad/synopsys/hspice/2015.06/hspice/linux64/hspice  -mt 15 -i './test_header/c1908d/5_10_50_9y.sp' -o ./hspice_result/c1908d/5/5_10_50_9y

>info:         ***** hspice job concluded
Using: /usr/cad/synopsys/hspice/2015.06/hspice/linux64/hspice  -mt 15 -i './test_header/c1908d/9_10_50_6m.sp' -o ./hspice_result/c1908d/9/9_10_50_6m

>info:         ***** hspice job concluded
Using: /usr/cad/synopsys/hspice/2015.06/hspice/linux64/hspice  -mt 15 -i './test_header/c1908d/10_10_50_16y.sp' -o ./hspice_result/c1908d/10/10_10_50_16y

>info:         ***** hspice job concluded
Using: /usr/cad/synopsys/hspice/2015.06/hspice/linux64/hspice  -mt 15 -i './test_header/c1908d/3_10_50_1y.sp' -o ./hspice_result/c1908d/3/3_10_50_1y

>info:         ***** hspice job concluded
Using: /usr/cad/synopsys/hspice/2015.06/hspice/linux64/hspice  -mt 15 -i './test_header/c1908d/13_10_50_8m.sp' -o ./hspice_result/c1908d/13/13_10_50_8m

>info:         ***** hspice job concluded
Using: /usr/cad/synopsys/hspice/2015.06/hspice/linux64/hspice  -mt 15 -i './test_header/c1908d/0_10_50_5m.sp' -o ./hspice_result/c1908d/0/0_10_50_5m

>info:         ***** hspice job concluded
Using: /usr/cad/synopsys/hspice/2015.06/hspice/linux64/hspice  -mt 15 -i './test_header/c1908d/3_10_50_5y.sp' -o ./hspice_result/c1908d/3/3_10_50_5y

>info:         ***** hspice job concluded
Using: /usr/cad/synopsys/hspice/2015.06/hspice/linux64/hspice  -mt 15 -i './test_header/c1908d/8_10_50_5m.sp' -o ./hspice_result/c1908d/8/8_10_50_5m

>info:         ***** hspice job concluded
Using: /usr/cad/synopsys/hspice/2015.06/hspice/linux64/hspice  -mt 15 -i './test_header/c1908d/14_10_50_16y.sp' -o ./hspice_result/c1908d/14/14_10_50_16y

>info:         ***** hspice job concluded
Using: /usr/cad/synopsys/hspice/2015.06/hspice/linux64/hspice  -mt 15 -i './test_header/c1908d/14_10_50_4m.sp' -o ./hspice_result/c1908d/14/14_10_50_4m

>info:         ***** hspice job concluded
Using: /usr/cad/synopsys/hspice/2015.06/hspice/linux64/hspice  -mt 15 -i './test_header/c1908d/5_10_50_5m.sp' -o ./hspice_result/c1908d/5/5_10_50_5m

>info:         ***** hspice job concluded
Using: /usr/cad/synopsys/hspice/2015.06/hspice/linux64/hspice  -mt 15 -i './test_header/c1908d/0_10_50_7m.sp' -o ./hspice_result/c1908d/0/0_10_50_7m

>info:         ***** hspice job concluded
Using: /usr/cad/synopsys/hspice/2015.06/hspice/linux64/hspice  -mt 15 -i './test_header/c1908d/7_10_50_7y.sp' -o ./hspice_result/c1908d/7/7_10_50_7y

>info:         ***** hspice job concluded
Using: /usr/cad/synopsys/hspice/2015.06/hspice/linux64/hspice  -mt 15 -i './test_header/c1908d/5_10_50_6y.sp' -o ./hspice_result/c1908d/5/5_10_50_6y

>info:         ***** hspice job concluded
Using: /usr/cad/synopsys/hspice/2015.06/hspice/linux64/hspice  -mt 15 -i './test_header/c1908d/0_10_50_12y.sp' -o ./hspice_result/c1908d/0/0_10_50_12y

>info:         ***** hspice job concluded
Using: /usr/cad/synopsys/hspice/2015.06/hspice/linux64/hspice  -mt 15 -i './test_header/c1908d/14_10_50_9y.sp' -o ./hspice_result/c1908d/14/14_10_50_9y

>info:         ***** hspice job concluded
Using: /usr/cad/synopsys/hspice/2015.06/hspice/linux64/hspice  -mt 15 -i './test_header/c1908d/8_10_50_14y.sp' -o ./hspice_result/c1908d/8/8_10_50_14y

>info:         ***** hspice job concluded
Using: /usr/cad/synopsys/hspice/2015.06/hspice/linux64/hspice  -mt 15 -i './test_header/c1908d/4_10_50_20y.sp' -o ./hspice_result/c1908d/4/4_10_50_20y

>info:         ***** hspice job concluded
Using: /usr/cad/synopsys/hspice/2015.06/hspice/linux64/hspice  -mt 15 -i './test_header/c1908d/4_10_50_6y.sp' -o ./hspice_result/c1908d/4/4_10_50_6y

>info:         ***** hspice job concluded
Using: /usr/cad/synopsys/hspice/2015.06/hspice/linux64/hspice  -mt 15 -i './test_header/c1908d/2_10_50_0m.sp' -o ./hspice_result/c1908d/2/2_10_50_0m

>info:         ***** hspice job concluded
Using: /usr/cad/synopsys/hspice/2015.06/hspice/linux64/hspice  -mt 15 -i './test_header/c1908d/15_10_50_7y.sp' -o ./hspice_result/c1908d/15/15_10_50_7y

>info:         ***** hspice job concluded
Using: /usr/cad/synopsys/hspice/2015.06/hspice/linux64/hspice  -mt 15 -i './test_header/c1908d/6_10_50_20y.sp' -o ./hspice_result/c1908d/6/6_10_50_20y

>info:         ***** hspice job concluded
Using: /usr/cad/synopsys/hspice/2015.06/hspice/linux64/hspice  -mt 15 -i './test_header/c1908d/12_10_50_18y.sp' -o ./hspice_result/c1908d/12/12_10_50_18y

>info:         ***** hspice job concluded
Using: /usr/cad/synopsys/hspice/2015.06/hspice/linux64/hspice  -mt 15 -i './test_header/c1908d/10_10_50_4m.sp' -o ./hspice_result/c1908d/10/10_10_50_4m

>info:         ***** hspice job concluded
Using: /usr/cad/synopsys/hspice/2015.06/hspice/linux64/hspice  -mt 15 -i './test_header/c1908d/1_10_50_0m.sp' -o ./hspice_result/c1908d/1/1_10_50_0m

>info:         ***** hspice job concluded
Using: /usr/cad/synopsys/hspice/2015.06/hspice/linux64/hspice  -mt 15 -i './test_header/c1908d/17_10_50_5y.sp' -o ./hspice_result/c1908d/17/17_10_50_5y

>info:         ***** hspice job concluded
Using: /usr/cad/synopsys/hspice/2015.06/hspice/linux64/hspice  -mt 15 -i './test_header/c1908d/16_10_50_13y.sp' -o ./hspice_result/c1908d/16/16_10_50_13y

>info:         ***** hspice job concluded
Using: /usr/cad/synopsys/hspice/2015.06/hspice/linux64/hspice  -mt 15 -i './test_header/c1908d/9_10_50_1m.sp' -o ./hspice_result/c1908d/9/9_10_50_1m

>info:         ***** hspice job concluded
Using: /usr/cad/synopsys/hspice/2015.06/hspice/linux64/hspice  -mt 15 -i './test_header/c1908d/7_10_50_5m.sp' -o ./hspice_result/c1908d/7/7_10_50_5m

>info:         ***** hspice job concluded
Using: /usr/cad/synopsys/hspice/2015.06/hspice/linux64/hspice  -mt 15 -i './test_header/c1908d/2_10_50_19y.sp' -o ./hspice_result/c1908d/2/2_10_50_19y

>info:         ***** hspice job concluded
Using: /usr/cad/synopsys/hspice/2015.06/hspice/linux64/hspice  -mt 15 -i './test_header/c1908d/14_10_50_5m.sp' -o ./hspice_result/c1908d/14/14_10_50_5m

>info:         ***** hspice job concluded
Using: /usr/cad/synopsys/hspice/2015.06/hspice/linux64/hspice  -mt 15 -i './test_header/c1908d/13_10_50_14y.sp' -o ./hspice_result/c1908d/13/13_10_50_14y

>info:         ***** hspice job concluded
Using: /usr/cad/synopsys/hspice/2015.06/hspice/linux64/hspice  -mt 15 -i './test_header/c1908d/9_10_50_1y.sp' -o ./hspice_result/c1908d/9/9_10_50_1y

>info:         ***** hspice job concluded
Using: /usr/cad/synopsys/hspice/2015.06/hspice/linux64/hspice  -mt 15 -i './test_header/c1908d/15_10_50_5y.sp' -o ./hspice_result/c1908d/15/15_10_50_5y

>info:         ***** hspice job concluded
Using: /usr/cad/synopsys/hspice/2015.06/hspice/linux64/hspice  -mt 15 -i './test_header/c1908d/9_10_50_18y.sp' -o ./hspice_result/c1908d/9/9_10_50_18y

>info:         ***** hspice job concluded
Using: /usr/cad/synopsys/hspice/2015.06/hspice/linux64/hspice  -mt 15 -i './test_header/c1908d/19_10_50_8m.sp' -o ./hspice_result/c1908d/19/19_10_50_8m

>info:         ***** hspice job concluded
Using: /usr/cad/synopsys/hspice/2015.06/hspice/linux64/hspice  -mt 15 -i './test_header/c1908d/11_10_50_16y.sp' -o ./hspice_result/c1908d/11/11_10_50_16y

>info:         ***** hspice job concluded
Using: /usr/cad/synopsys/hspice/2015.06/hspice/linux64/hspice  -mt 15 -i './test_header/c1908d/9_10_50_15y.sp' -o ./hspice_result/c1908d/9/9_10_50_15y

>info:         ***** hspice job concluded
Using: /usr/cad/synopsys/hspice/2015.06/hspice/linux64/hspice  -mt 15 -i './test_header/c1908d/18_10_50_2m.sp' -o ./hspice_result/c1908d/18/18_10_50_2m

>info:         ***** hspice job concluded
Using: /usr/cad/synopsys/hspice/2015.06/hspice/linux64/hspice  -mt 15 -i './test_header/c1908d/3_10_50_6y.sp' -o ./hspice_result/c1908d/3/3_10_50_6y

>info:         ***** hspice job concluded
Using: /usr/cad/synopsys/hspice/2015.06/hspice/linux64/hspice  -mt 15 -i './test_header/c1908d/16_10_50_20y.sp' -o ./hspice_result/c1908d/16/16_10_50_20y

>info:         ***** hspice job concluded
Using: /usr/cad/synopsys/hspice/2015.06/hspice/linux64/hspice  -mt 15 -i './test_header/c1908d/14_10_50_18y.sp' -o ./hspice_result/c1908d/14/14_10_50_18y

>info:         ***** hspice job concluded
Using: /usr/cad/synopsys/hspice/2015.06/hspice/linux64/hspice  -mt 15 -i './test_header/c1908d/4_10_50_19y.sp' -o ./hspice_result/c1908d/4/4_10_50_19y

>info:         ***** hspice job concluded
Using: /usr/cad/synopsys/hspice/2015.06/hspice/linux64/hspice  -mt 15 -i './test_header/c1908d/18_10_50_9y.sp' -o ./hspice_result/c1908d/18/18_10_50_9y

>info:         ***** hspice job concluded
Using: /usr/cad/synopsys/hspice/2015.06/hspice/linux64/hspice  -mt 15 -i './test_header/c1908d/16_10_50_5m.sp' -o ./hspice_result/c1908d/16/16_10_50_5m

>info:         ***** hspice job concluded
Using: /usr/cad/synopsys/hspice/2015.06/hspice/linux64/hspice  -mt 15 -i './test_header/c1908d/14_10_50_0m.sp' -o ./hspice_result/c1908d/14/14_10_50_0m

>info:         ***** hspice job concluded
Using: /usr/cad/synopsys/hspice/2015.06/hspice/linux64/hspice  -mt 15 -i './test_header/c1908d/5_10_50_17y.sp' -o ./hspice_result/c1908d/5/5_10_50_17y

>info:         ***** hspice job concluded
Using: /usr/cad/synopsys/hspice/2015.06/hspice/linux64/hspice  -mt 15 -i './test_header/c1908d/4_10_50_17y.sp' -o ./hspice_result/c1908d/4/4_10_50_17y

>info:         ***** hspice job concluded
Using: /usr/cad/synopsys/hspice/2015.06/hspice/linux64/hspice  -mt 15 -i './test_header/c1908d/12_10_50_19y.sp' -o ./hspice_result/c1908d/12/12_10_50_19y

>info:         ***** hspice job concluded
Using: /usr/cad/synopsys/hspice/2015.06/hspice/linux64/hspice  -mt 15 -i './test_header/c1908d/0_10_50_2m.sp' -o ./hspice_result/c1908d/0/0_10_50_2m

>info:         ***** hspice job concluded
Using: /usr/cad/synopsys/hspice/2015.06/hspice/linux64/hspice  -mt 15 -i './test_header/c1908d/5_10_50_16y.sp' -o ./hspice_result/c1908d/5/5_10_50_16y

>info:         ***** hspice job concluded
Using: /usr/cad/synopsys/hspice/2015.06/hspice/linux64/hspice  -mt 15 -i './test_header/c1908d/5_10_50_11y.sp' -o ./hspice_result/c1908d/5/5_10_50_11y

>info:         ***** hspice job concluded
Using: /usr/cad/synopsys/hspice/2015.06/hspice/linux64/hspice  -mt 15 -i './test_header/c1908d/0_10_50_15y.sp' -o ./hspice_result/c1908d/0/0_10_50_15y

>info:         ***** hspice job concluded
Using: /usr/cad/synopsys/hspice/2015.06/hspice/linux64/hspice  -mt 15 -i './test_header/c1908d/8_10_50_12y.sp' -o ./hspice_result/c1908d/8/8_10_50_12y

>info:         ***** hspice job concluded
Using: /usr/cad/synopsys/hspice/2015.06/hspice/linux64/hspice  -mt 15 -i './test_header/c1908d/8_10_50_11y.sp' -o ./hspice_result/c1908d/8/8_10_50_11y

>info:         ***** hspice job concluded
Using: /usr/cad/synopsys/hspice/2015.06/hspice/linux64/hspice  -mt 15 -i './test_header/c1908d/1_10_50_3y.sp' -o ./hspice_result/c1908d/1/1_10_50_3y

>info:         ***** hspice job concluded
Using: /usr/cad/synopsys/hspice/2015.06/hspice/linux64/hspice  -mt 15 -i './test_header/c1908d/15_10_50_18y.sp' -o ./hspice_result/c1908d/15/15_10_50_18y

>info:         ***** hspice job concluded
Using: /usr/cad/synopsys/hspice/2015.06/hspice/linux64/hspice  -mt 15 -i './test_header/c1908d/4_10_50_0m.sp' -o ./hspice_result/c1908d/4/4_10_50_0m

>info:         ***** hspice job concluded
Using: /usr/cad/synopsys/hspice/2015.06/hspice/linux64/hspice  -mt 15 -i './test_header/c1908d/18_10_50_7m.sp' -o ./hspice_result/c1908d/18/18_10_50_7m

>info:         ***** hspice job concluded
Using: /usr/cad/synopsys/hspice/2015.06/hspice/linux64/hspice  -mt 15 -i './test_header/c1908d/10_10_50_1m.sp' -o ./hspice_result/c1908d/10/10_10_50_1m

>info:         ***** hspice job concluded
Using: /usr/cad/synopsys/hspice/2015.06/hspice/linux64/hspice  -mt 15 -i './test_header/c1908d/0_10_50_1y.sp' -o ./hspice_result/c1908d/0/0_10_50_1y

>info:         ***** hspice job concluded
Using: /usr/cad/synopsys/hspice/2015.06/hspice/linux64/hspice  -mt 15 -i './test_header/c1908d/2_10_50_1y.sp' -o ./hspice_result/c1908d/2/2_10_50_1y

>info:         ***** hspice job concluded
Using: /usr/cad/synopsys/hspice/2015.06/hspice/linux64/hspice  -mt 15 -i './test_header/c1908d/16_10_50_15y.sp' -o ./hspice_result/c1908d/16/16_10_50_15y

>info:         ***** hspice job concluded
Using: /usr/cad/synopsys/hspice/2015.06/hspice/linux64/hspice  -mt 15 -i './test_header/c1908d/7_10_50_4y.sp' -o ./hspice_result/c1908d/7/7_10_50_4y

>info:         ***** hspice job concluded
Using: /usr/cad/synopsys/hspice/2015.06/hspice/linux64/hspice  -mt 15 -i './test_header/c1908d/10_10_50_0m.sp' -o ./hspice_result/c1908d/10/10_10_50_0m

>info:         ***** hspice job concluded
Using: /usr/cad/synopsys/hspice/2015.06/hspice/linux64/hspice  -mt 15 -i './test_header/c1908d/14_10_50_10m.sp' -o ./hspice_result/c1908d/14/14_10_50_10m

>info:         ***** hspice job concluded
Using: /usr/cad/synopsys/hspice/2015.06/hspice/linux64/hspice  -mt 15 -i './test_header/c1908d/3_10_50_10m.sp' -o ./hspice_result/c1908d/3/3_10_50_10m

>info:         ***** hspice job concluded
Using: /usr/cad/synopsys/hspice/2015.06/hspice/linux64/hspice  -mt 15 -i './test_header/c1908d/8_10_50_20y.sp' -o ./hspice_result/c1908d/8/8_10_50_20y

>info:         ***** hspice job concluded
Using: /usr/cad/synopsys/hspice/2015.06/hspice/linux64/hspice  -mt 15 -i './test_header/c1908d/14_10_50_5y.sp' -o ./hspice_result/c1908d/14/14_10_50_5y

>info:         ***** hspice job concluded
Using: /usr/cad/synopsys/hspice/2015.06/hspice/linux64/hspice  -mt 15 -i './test_header/c1908d/12_10_50_7m.sp' -o ./hspice_result/c1908d/12/12_10_50_7m

>info:         ***** hspice job concluded
Using: /usr/cad/synopsys/hspice/2015.06/hspice/linux64/hspice  -mt 15 -i './test_header/c1908d/10_10_50_3y.sp' -o ./hspice_result/c1908d/10/10_10_50_3y

>info:         ***** hspice job concluded
Using: /usr/cad/synopsys/hspice/2015.06/hspice/linux64/hspice  -mt 15 -i './test_header/c1908d/17_10_50_10m.sp' -o ./hspice_result/c1908d/17/17_10_50_10m

>info:         ***** hspice job concluded
Using: /usr/cad/synopsys/hspice/2015.06/hspice/linux64/hspice  -mt 15 -i './test_header/c1908d/1_10_50_15y.sp' -o ./hspice_result/c1908d/1/1_10_50_15y

>info:         ***** hspice job concluded
Using: /usr/cad/synopsys/hspice/2015.06/hspice/linux64/hspice  -mt 15 -i './test_header/c1908d/12_10_50_1m.sp' -o ./hspice_result/c1908d/12/12_10_50_1m

>info:         ***** hspice job concluded
Using: /usr/cad/synopsys/hspice/2015.06/hspice/linux64/hspice  -mt 15 -i './test_header/c1908d/3_10_50_5m.sp' -o ./hspice_result/c1908d/3/3_10_50_5m

>info:         ***** hspice job concluded
Using: /usr/cad/synopsys/hspice/2015.06/hspice/linux64/hspice  -mt 15 -i './test_header/c1908d/11_10_50_13y.sp' -o ./hspice_result/c1908d/11/11_10_50_13y

>info:         ***** hspice job concluded
Using: /usr/cad/synopsys/hspice/2015.06/hspice/linux64/hspice  -mt 15 -i './test_header/c1908d/10_10_50_5y.sp' -o ./hspice_result/c1908d/10/10_10_50_5y

>info:         ***** hspice job concluded
Using: /usr/cad/synopsys/hspice/2015.06/hspice/linux64/hspice  -mt 15 -i './test_header/c1908d/16_10_50_7y.sp' -o ./hspice_result/c1908d/16/16_10_50_7y

>info:         ***** hspice job concluded
Using: /usr/cad/synopsys/hspice/2015.06/hspice/linux64/hspice  -mt 15 -i './test_header/c1908d/4_10_50_8y.sp' -o ./hspice_result/c1908d/4/4_10_50_8y

>info:         ***** hspice job concluded
Using: /usr/cad/synopsys/hspice/2015.06/hspice/linux64/hspice  -mt 15 -i './test_header/c1908d/7_10_50_11y.sp' -o ./hspice_result/c1908d/7/7_10_50_11y

>info:         ***** hspice job concluded
Using: /usr/cad/synopsys/hspice/2015.06/hspice/linux64/hspice  -mt 15 -i './test_header/c1908d/18_10_50_6m.sp' -o ./hspice_result/c1908d/18/18_10_50_6m

>info:         ***** hspice job concluded
Using: /usr/cad/synopsys/hspice/2015.06/hspice/linux64/hspice  -mt 15 -i './test_header/c1908d/2_10_50_15y.sp' -o ./hspice_result/c1908d/2/2_10_50_15y

>info:         ***** hspice job concluded
Using: /usr/cad/synopsys/hspice/2015.06/hspice/linux64/hspice  -mt 15 -i './test_header/c1908d/3_10_50_9y.sp' -o ./hspice_result/c1908d/3/3_10_50_9y

>info:         ***** hspice job concluded
Using: /usr/cad/synopsys/hspice/2015.06/hspice/linux64/hspice  -mt 15 -i './test_header/c1908d/8_10_50_19y.sp' -o ./hspice_result/c1908d/8/8_10_50_19y

>info:         ***** hspice job concluded
Using: /usr/cad/synopsys/hspice/2015.06/hspice/linux64/hspice  -mt 15 -i './test_header/c1908d/16_10_50_17y.sp' -o ./hspice_result/c1908d/16/16_10_50_17y

>info:         ***** hspice job concluded
Using: /usr/cad/synopsys/hspice/2015.06/hspice/linux64/hspice  -mt 15 -i './test_header/c1908d/10_10_50_9y.sp' -o ./hspice_result/c1908d/10/10_10_50_9y

>info:         ***** hspice job concluded
Using: /usr/cad/synopsys/hspice/2015.06/hspice/linux64/hspice  -mt 15 -i './test_header/c1908d/13_10_50_3y.sp' -o ./hspice_result/c1908d/13/13_10_50_3y

>info:         ***** hspice job concluded
Using: /usr/cad/synopsys/hspice/2015.06/hspice/linux64/hspice  -mt 15 -i './test_header/c1908d/13_10_50_1y.sp' -o ./hspice_result/c1908d/13/13_10_50_1y

>info:         ***** hspice job concluded
Using: /usr/cad/synopsys/hspice/2015.06/hspice/linux64/hspice  -mt 15 -i './test_header/c1908d/6_10_50_9m.sp' -o ./hspice_result/c1908d/6/6_10_50_9m

>info:         ***** hspice job concluded
Using: /usr/cad/synopsys/hspice/2015.06/hspice/linux64/hspice  -mt 15 -i './test_header/c1908d/2_10_50_7m.sp' -o ./hspice_result/c1908d/2/2_10_50_7m

>info:         ***** hspice job concluded
Using: /usr/cad/synopsys/hspice/2015.06/hspice/linux64/hspice  -mt 15 -i './test_header/c1908d/6_10_50_17y.sp' -o ./hspice_result/c1908d/6/6_10_50_17y

>info:         ***** hspice job concluded
Using: /usr/cad/synopsys/hspice/2015.06/hspice/linux64/hspice  -mt 15 -i './test_header/c1908d/12_10_50_9y.sp' -o ./hspice_result/c1908d/12/12_10_50_9y

>info:         ***** hspice job concluded
Using: /usr/cad/synopsys/hspice/2015.06/hspice/linux64/hspice  -mt 15 -i './test_header/c1908d/4_10_50_3y.sp' -o ./hspice_result/c1908d/4/4_10_50_3y

>info:         ***** hspice job concluded
Using: /usr/cad/synopsys/hspice/2015.06/hspice/linux64/hspice  -mt 15 -i './test_header/c1908d/14_10_50_8m.sp' -o ./hspice_result/c1908d/14/14_10_50_8m

>info:         ***** hspice job concluded
Using: /usr/cad/synopsys/hspice/2015.06/hspice/linux64/hspice  -mt 15 -i './test_header/c1908d/14_10_50_1y.sp' -o ./hspice_result/c1908d/14/14_10_50_1y

>info:         ***** hspice job concluded
Using: /usr/cad/synopsys/hspice/2015.06/hspice/linux64/hspice  -mt 15 -i './test_header/c1908d/19_10_50_16y.sp' -o ./hspice_result/c1908d/19/19_10_50_16y

>info:         ***** hspice job concluded
Using: /usr/cad/synopsys/hspice/2015.06/hspice/linux64/hspice  -mt 15 -i './test_header/c1908d/17_10_50_9m.sp' -o ./hspice_result/c1908d/17/17_10_50_9m

>info:         ***** hspice job concluded
Using: /usr/cad/synopsys/hspice/2015.06/hspice/linux64/hspice  -mt 15 -i './test_header/c1908d/7_10_50_4m.sp' -o ./hspice_result/c1908d/7/7_10_50_4m

>info:         ***** hspice job concluded
Using: /usr/cad/synopsys/hspice/2015.06/hspice/linux64/hspice  -mt 15 -i './test_header/c1908d/12_10_50_9m.sp' -o ./hspice_result/c1908d/12/12_10_50_9m

>info:         ***** hspice job concluded
Using: /usr/cad/synopsys/hspice/2015.06/hspice/linux64/hspice  -mt 15 -i './test_header/c1908d/6_10_50_19y.sp' -o ./hspice_result/c1908d/6/6_10_50_19y

>info:         ***** hspice job concluded
Using: /usr/cad/synopsys/hspice/2015.06/hspice/linux64/hspice  -mt 15 -i './test_header/c1908d/17_10_50_20y.sp' -o ./hspice_result/c1908d/17/17_10_50_20y

>info:         ***** hspice job concluded
Using: /usr/cad/synopsys/hspice/2015.06/hspice/linux64/hspice  -mt 15 -i './test_header/c1908d/10_10_50_9m.sp' -o ./hspice_result/c1908d/10/10_10_50_9m

>info:         ***** hspice job concluded
Using: /usr/cad/synopsys/hspice/2015.06/hspice/linux64/hspice  -mt 15 -i './test_header/c1908d/8_10_50_7y.sp' -o ./hspice_result/c1908d/8/8_10_50_7y

>info:         ***** hspice job concluded
Using: /usr/cad/synopsys/hspice/2015.06/hspice/linux64/hspice  -mt 15 -i './test_header/c1908d/11_10_50_14y.sp' -o ./hspice_result/c1908d/11/11_10_50_14y

>info:         ***** hspice job concluded
Using: /usr/cad/synopsys/hspice/2015.06/hspice/linux64/hspice  -mt 15 -i './test_header/c1908d/11_10_50_11y.sp' -o ./hspice_result/c1908d/11/11_10_50_11y

>info:         ***** hspice job concluded
Using: /usr/cad/synopsys/hspice/2015.06/hspice/linux64/hspice  -mt 15 -i './test_header/c1908d/11_10_50_17y.sp' -o ./hspice_result/c1908d/11/11_10_50_17y

>info:         ***** hspice job concluded
Using: /usr/cad/synopsys/hspice/2015.06/hspice/linux64/hspice  -mt 15 -i './test_header/c1908d/19_10_50_17y.sp' -o ./hspice_result/c1908d/19/19_10_50_17y

>info:         ***** hspice job concluded
Using: /usr/cad/synopsys/hspice/2015.06/hspice/linux64/hspice  -mt 15 -i './test_header/c1908d/19_10_50_2m.sp' -o ./hspice_result/c1908d/19/19_10_50_2m

>info:         ***** hspice job concluded
Using: /usr/cad/synopsys/hspice/2015.06/hspice/linux64/hspice  -mt 15 -i './test_header/c1908d/18_10_50_8m.sp' -o ./hspice_result/c1908d/18/18_10_50_8m

>info:         ***** hspice job concluded
Using: /usr/cad/synopsys/hspice/2015.06/hspice/linux64/hspice  -mt 15 -i './test_header/c1908d/11_10_50_10m.sp' -o ./hspice_result/c1908d/11/11_10_50_10m

>info:         ***** hspice job concluded
Using: /usr/cad/synopsys/hspice/2015.06/hspice/linux64/hspice  -mt 15 -i './test_header/c1908d/0_10_50_6m.sp' -o ./hspice_result/c1908d/0/0_10_50_6m

>info:         ***** hspice job concluded
Using: /usr/cad/synopsys/hspice/2015.06/hspice/linux64/hspice  -mt 15 -i './test_header/c1908d/15_10_50_11m.sp' -o ./hspice_result/c1908d/15/15_10_50_11m

>info:         ***** hspice job concluded
Using: /usr/cad/synopsys/hspice/2015.06/hspice/linux64/hspice  -mt 15 -i './test_header/c1908d/5_10_50_9m.sp' -o ./hspice_result/c1908d/5/5_10_50_9m

>info:         ***** hspice job concluded
Using: /usr/cad/synopsys/hspice/2015.06/hspice/linux64/hspice  -mt 15 -i './test_header/c1908d/17_10_50_16y.sp' -o ./hspice_result/c1908d/17/17_10_50_16y

>info:         ***** hspice job concluded
Using: /usr/cad/synopsys/hspice/2015.06/hspice/linux64/hspice  -mt 15 -i './test_header/c1908d/16_10_50_9m.sp' -o ./hspice_result/c1908d/16/16_10_50_9m

>info:         ***** hspice job concluded
Using: /usr/cad/synopsys/hspice/2015.06/hspice/linux64/hspice  -mt 15 -i './test_header/c1908d/6_10_50_6y.sp' -o ./hspice_result/c1908d/6/6_10_50_6y

>info:         ***** hspice job concluded
Using: /usr/cad/synopsys/hspice/2015.06/hspice/linux64/hspice  -mt 15 -i './test_header/c1908d/9_10_50_9m.sp' -o ./hspice_result/c1908d/9/9_10_50_9m

>info:         ***** hspice job concluded
Using: /usr/cad/synopsys/hspice/2015.06/hspice/linux64/hspice  -mt 15 -i './test_header/c1908d/6_10_50_10m.sp' -o ./hspice_result/c1908d/6/6_10_50_10m

>info:         ***** hspice job concluded
Using: /usr/cad/synopsys/hspice/2015.06/hspice/linux64/hspice  -mt 15 -i './test_header/c1908d/16_10_50_4m.sp' -o ./hspice_result/c1908d/16/16_10_50_4m

>info:         ***** hspice job concluded
Using: /usr/cad/synopsys/hspice/2015.06/hspice/linux64/hspice  -mt 15 -i './test_header/c1908d/11_10_50_11m.sp' -o ./hspice_result/c1908d/11/11_10_50_11m

>info:         ***** hspice job concluded
Using: /usr/cad/synopsys/hspice/2015.06/hspice/linux64/hspice  -mt 15 -i './test_header/c1908d/10_10_50_1y.sp' -o ./hspice_result/c1908d/10/10_10_50_1y

>info:         ***** hspice job concluded
Using: /usr/cad/synopsys/hspice/2015.06/hspice/linux64/hspice  -mt 15 -i './test_header/c1908d/18_10_50_11m.sp' -o ./hspice_result/c1908d/18/18_10_50_11m

>info:         ***** hspice job concluded
Using: /usr/cad/synopsys/hspice/2015.06/hspice/linux64/hspice  -mt 15 -i './test_header/c1908d/17_10_50_12y.sp' -o ./hspice_result/c1908d/17/17_10_50_12y

>info:         ***** hspice job concluded
Using: /usr/cad/synopsys/hspice/2015.06/hspice/linux64/hspice  -mt 15 -i './test_header/c1908d/8_10_50_9y.sp' -o ./hspice_result/c1908d/8/8_10_50_9y

>info:         ***** hspice job concluded
Using: /usr/cad/synopsys/hspice/2015.06/hspice/linux64/hspice  -mt 15 -i './test_header/c1908d/12_10_50_8y.sp' -o ./hspice_result/c1908d/12/12_10_50_8y

>info:         ***** hspice job concluded
Using: /usr/cad/synopsys/hspice/2015.06/hspice/linux64/hspice  -mt 15 -i './test_header/c1908d/15_10_50_20y.sp' -o ./hspice_result/c1908d/15/15_10_50_20y

>info:         ***** hspice job concluded
Using: /usr/cad/synopsys/hspice/2015.06/hspice/linux64/hspice  -mt 15 -i './test_header/c1908d/19_10_50_6y.sp' -o ./hspice_result/c1908d/19/19_10_50_6y

>info:         ***** hspice job concluded
Using: /usr/cad/synopsys/hspice/2015.06/hspice/linux64/hspice  -mt 15 -i './test_header/c1908d/8_10_50_0m.sp' -o ./hspice_result/c1908d/8/8_10_50_0m

>info:         ***** hspice job concluded
Using: /usr/cad/synopsys/hspice/2015.06/hspice/linux64/hspice  -mt 15 -i './test_header/c1908d/18_10_50_1m.sp' -o ./hspice_result/c1908d/18/18_10_50_1m

>info:         ***** hspice job concluded
Using: /usr/cad/synopsys/hspice/2015.06/hspice/linux64/hspice  -mt 15 -i './test_header/c1908d/6_10_50_15y.sp' -o ./hspice_result/c1908d/6/6_10_50_15y

>info:         ***** hspice job concluded
Using: /usr/cad/synopsys/hspice/2015.06/hspice/linux64/hspice  -mt 15 -i './test_header/c1908d/1_10_50_4y.sp' -o ./hspice_result/c1908d/1/1_10_50_4y

>info:         ***** hspice job concluded
Using: /usr/cad/synopsys/hspice/2015.06/hspice/linux64/hspice  -mt 15 -i './test_header/c1908d/14_10_50_7y.sp' -o ./hspice_result/c1908d/14/14_10_50_7y

>info:         ***** hspice job concluded
Using: /usr/cad/synopsys/hspice/2015.06/hspice/linux64/hspice  -mt 15 -i './test_header/c1908d/0_10_50_19y.sp' -o ./hspice_result/c1908d/0/0_10_50_19y

>info:         ***** hspice job concluded
Using: /usr/cad/synopsys/hspice/2015.06/hspice/linux64/hspice  -mt 15 -i './test_header/c1908d/12_10_50_3m.sp' -o ./hspice_result/c1908d/12/12_10_50_3m

>info:         ***** hspice job concluded
Using: /usr/cad/synopsys/hspice/2015.06/hspice/linux64/hspice  -mt 15 -i './test_header/c1908d/14_10_50_15y.sp' -o ./hspice_result/c1908d/14/14_10_50_15y

>info:         ***** hspice job concluded
Using: /usr/cad/synopsys/hspice/2015.06/hspice/linux64/hspice  -mt 15 -i './test_header/c1908d/9_10_50_8m.sp' -o ./hspice_result/c1908d/9/9_10_50_8m

>info:         ***** hspice job concluded
